sad/pglib_opf_case4619_goc__sad.m
%%%%%%%%%%%%%%%%%%%%%%%%%%%%%%%%%%%%%%%%%%%%%%%%%%%%%%%%%%%%%%%%%%%%%%%%%%%
%%%%                                                                  %%%%%
%%%%    IEEE PES Power Grid Library - Optimal Power Flow - v20.04     %%%%%
%%%%          (https://github.com/power-grid-lib/pglib-opf)           %%%%%
%%%%             Benchmark Group - Small Angle Difference             %%%%%
%%%%                         12 - July - 2020                         %%%%%
%%%%                                                                  %%%%%
%%%%%%%%%%%%%%%%%%%%%%%%%%%%%%%%%%%%%%%%%%%%%%%%%%%%%%%%%%%%%%%%%%%%%%%%%%%
function mpc = pglib_opf_case4619_goc__sad
mpc.version = '2';
mpc.baseMVA = 100.0;

%% bus data
%	bus_i	type	Pd	Qd	Gs	Bs	area	Vm	Va	baseKV	zone	Vmax	Vmin
mpc.bus = [
	46843	 2	 0.0	 0.0	 0.0	 0.0	 1	    1.00000	    0.00000	 500.0	 1	    1.10000	    0.90000;
	46844	 2	 0.0	 0.0	 0.0	 0.0	 1	    1.00000	    0.00000	 500.0	 1	    1.10000	    0.90000;
	46845	 1	 0.0	 0.0	 0.0	 0.0	 1	    1.00000	    0.00000	 500.0	 1	    1.10000	    0.90000;
	46846	 2	 0.0	 0.0	 0.0	 0.0	 1	    1.00000	    0.00000	 500.0	 1	    1.10000	    0.90000;
	46847	 1	 0.0	 0.0	 0.0	 0.0	 1	    1.00000	    0.00000	 230.0	 1	    1.10000	    0.90000;
	46848	 1	 1.0	 330.0	 0.0	 0.0	 1	    1.00000	    0.00000	 500.0	 1	    1.10000	    0.90000;
	46849	 2	 0.0	 0.0	 0.0	 0.0	 1	    1.00000	    0.00000	 500.0	 1	    1.10000	    0.90000;
	46850	 2	 0.0	 0.0	 0.0	 0.0	 1	    1.00000	    0.00000	 500.0	 1	    1.10000	    0.90000;
	46851	 2	 0.0	 0.0	 0.0	 0.0	 1	    1.00000	    0.00000	 500.0	 1	    1.10000	    0.90000;
	46852	 2	 0.0	 0.0	 0.0	 0.0	 1	    1.00000	    0.00000	 345.0	 1	    1.10000	    0.90000;
	46853	 3	 0.0	 0.0	 0.0	 0.0	 1	    1.00000	    0.00000	 500.0	 1	    1.10000	    0.90000;
	46854	 1	 0.0	 0.0	 0.0	 0.0	 1	    1.00000	    0.00000	 69.0	 1	    1.10000	    0.90000;
	46855	 1	 0.0	 0.0	 0.0	 0.0	 1	    1.00000	    0.00000	 138.0	 1	    1.10000	    0.90000;
	46856	 1	 0.0	 0.0	 0.0	 0.0	 1	    1.00000	    0.00000	 500.0	 1	    1.10000	    0.90000;
	46857	 1	 0.0	 0.0	 0.0	 0.0	 1	    1.00000	    0.00000	 230.0	 1	    1.10000	    0.90000;
	46858	 1	 0.0	 0.0	 0.0	 0.0	 1	    1.00000	    0.00000	 230.0	 1	    1.10000	    0.90000;
	46859	 2	 0.0	 0.0	 0.0	 0.0	 1	    1.00000	    0.00000	 500.0	 1	    1.10000	    0.90000;
	46860	 2	 0.0	 0.0	 0.0	 0.0	 1	    1.00000	    0.00000	 500.0	 1	    1.10000	    0.90000;
	46861	 1	 0.0	 0.0	 0.0	 0.0	 1	    1.00000	    0.00000	 69.0	 1	    1.10000	    0.90000;
	46862	 2	 0.0	 0.0	 0.0	 0.0	 1	    1.00000	    0.00000	 138.0	 1	    1.10000	    0.90000;
	46863	 2	 0.0	 0.0	 0.0	 0.0	 1	    1.00000	    0.00000	 500.0	 1	    1.10000	    0.90000;
	46864	 1	 0.0	 0.0	 0.0	 0.0	 1	    1.00000	    0.00000	 500.0	 1	    1.10000	    0.90000;
	46865	 1	 0.0	 0.0	 0.0	 0.0	 1	    1.00000	    0.00000	 138.0	 1	    1.10000	    0.90000;
	46866	 2	 0.0	 0.0	 0.0	 0.0	 1	    1.00000	    0.00000	 69.0	 1	    1.10000	    0.90000;
	46867	 1	 0.0	 0.0	 0.0	 0.0	 1	    1.00000	    0.00000	 230.0	 1	    1.10000	    0.90000;
	46868	 1	 0.0	 0.0	 0.0	 0.0	 1	    1.00000	    0.00000	 500.0	 1	    1.10000	    0.90000;
	46869	 1	 0.0	 0.0	 0.0	 0.0	 1	    1.00000	    0.00000	 230.0	 1	    1.10000	    0.90000;
	46870	 1	 0.0	 0.0	 0.0	 0.0	 1	    1.00000	    0.00000	 345.0	 1	    1.10000	    0.90000;
	46871	 2	 0.0	 0.0	 0.0	 0.0	 1	    1.00000	    0.00000	 69.0	 1	    1.10000	    0.90000;
	46872	 2	 0.0	 0.0	 0.0	 0.0	 1	    1.00000	    0.00000	 69.0	 1	    1.10000	    0.90000;
	46873	 1	 0.0	 0.0	 0.0	 0.0	 1	    1.00000	    0.00000	 345.0	 1	    1.10000	    0.90000;
	46874	 2	 0.0	 0.0	 0.0	 0.0	 1	    1.00000	    0.00000	 69.0	 1	    1.10000	    0.90000;
	46875	 1	 0.0	 0.0	 0.0	 0.0	 1	    1.00000	    0.00000	 138.0	 1	    1.10000	    0.90000;
	46876	 2	 0.0	 -3.42	 0.0	 0.0	 1	    1.00000	    0.00000	 69.0	 1	    1.10000	    0.90000;
	46877	 1	 0.0	 0.0	 0.0	 0.0	 1	    1.00000	    0.00000	 138.0	 1	    1.10000	    0.90000;
	46878	 1	 0.0	 0.0	 0.0	 0.0	 1	    1.00000	    0.00000	 345.0	 1	    1.10000	    0.90000;
	46879	 1	 0.0	 0.0	 0.0	 0.0	 1	    1.00000	    0.00000	 230.0	 1	    1.10000	    0.90000;
	46880	 1	 0.0	 0.0	 0.0	 0.0	 1	    1.00000	    0.00000	 230.0	 1	    1.10000	    0.90000;
	46881	 2	 0.0	 0.0	 0.0	 0.0	 1	    1.00000	    0.00000	 500.0	 1	    1.10000	    0.90000;
	46882	 1	 0.0	 0.0	 0.0	 0.0	 1	    1.00000	    0.00000	 345.0	 1	    1.10000	    0.90000;
	46883	 1	 0.0	 0.0	 0.0	 0.0	 1	    1.00000	    0.00000	 138.0	 1	    1.10000	    0.90000;
	46884	 1	 0.0	 0.0	 0.0	 0.0	 1	    1.00000	    0.00000	 500.0	 1	    1.10000	    0.90000;
	46885	 1	 0.0	 0.0	 0.0	 0.0	 1	    1.00000	    0.00000	 500.0	 1	    1.10000	    0.90000;
	46886	 1	 0.0	 0.0	 0.0	 0.0	 1	    1.00000	    0.00000	 500.0	 1	    1.10000	    0.90000;
	46887	 1	 0.0	 0.0	 0.0	 0.0	 1	    1.00000	    0.00000	 230.0	 1	    1.10000	    0.90000;
	46888	 2	 0.0	 0.0	 0.0	 0.0	 1	    1.00000	    0.00000	 230.0	 1	    1.10000	    0.90000;
	46889	 1	 0.0	 0.0	 0.0	 0.0	 1	    1.00000	    0.00000	 345.0	 1	    1.10000	    0.90000;
	46890	 1	 0.0	 0.0	 0.0	 0.0	 1	    1.00000	    0.00000	 500.0	 1	    1.10000	    0.90000;
	46891	 1	 0.0	 0.0	 0.0	 0.0	 1	    1.00000	    0.00000	 500.0	 1	    1.10000	    0.90000;
	46892	 1	 0.0	 0.0	 0.0	 0.0	 1	    1.00000	    0.00000	 345.0	 1	    1.10000	    0.90000;
	46893	 1	 0.0	 0.0	 0.0	 0.0	 1	    1.00000	    0.00000	 345.0	 1	    1.10000	    0.90000;
	46894	 1	 0.0	 0.0	 0.0	 0.0	 1	    1.00000	    0.00000	 230.0	 1	    1.10000	    0.90000;
	46895	 2	 0.0	 0.0	 0.0	 0.0	 1	    1.00000	    0.00000	 230.0	 1	    1.10000	    0.90000;
	46896	 2	 0.0	 0.0	 0.0	 0.0	 1	    1.00000	    0.00000	 230.0	 1	    1.10000	    0.90000;
	46897	 2	 0.0	 0.0	 0.0	 0.0	 1	    1.00000	    0.00000	 345.0	 1	    1.10000	    0.90000;
	46898	 1	 0.0	 0.0	 0.0	 0.0	 1	    1.00000	    0.00000	 500.0	 1	    1.10000	    0.90000;
	46899	 2	 0.0	 0.0	 0.0	 0.0	 1	    1.00000	    0.00000	 230.0	 1	    1.10000	    0.90000;
	46900	 2	 0.0	 0.0	 0.0	 0.0	 1	    1.00000	    0.00000	 500.0	 1	    1.10000	    0.90000;
	46901	 2	 0.0	 0.0	 0.0	 0.0	 1	    1.00000	    0.00000	 345.0	 1	    1.10000	    0.90000;
	46902	 1	 0.0	 0.0	 0.0	 0.0	 1	    1.00000	    0.00000	 230.0	 1	    1.10000	    0.90000;
	46903	 1	 0.0	 0.0	 0.0	 0.0	 1	    1.00000	    0.00000	 500.0	 1	    1.10000	    0.90000;
	46904	 2	 0.0	 0.0	 0.0	 0.0	 1	    1.00000	    0.00000	 230.0	 1	    1.10000	    0.90000;
	46905	 2	 0.0	 0.0	 0.0	 0.0	 1	    1.00000	    0.00000	 138.0	 1	    1.10000	    0.90000;
	46906	 1	 0.0	 0.0	 0.0	 0.0	 1	    1.00000	    0.00000	 345.0	 1	    1.10000	    0.90000;
	46907	 1	 0.0	 0.0	 0.0	 0.0	 1	    1.00000	    0.00000	 138.0	 1	    1.10000	    0.90000;
	46908	 1	 0.0	 0.0	 0.0	 0.0	 1	    1.00000	    0.00000	 345.0	 1	    1.10000	    0.90000;
	46909	 2	 0.0	 0.0	 0.0	 0.0	 1	    1.00000	    0.00000	 230.0	 1	    1.10000	    0.90000;
	46910	 1	 0.0	 0.0	 0.0	 0.0	 1	    1.00000	    0.00000	 345.0	 1	    1.10000	    0.90000;
	46911	 2	 0.0	 0.0	 0.0	 0.0	 1	    1.00000	    0.00000	 138.0	 1	    1.10000	    0.90000;
	46912	 2	 0.0	 0.0	 0.0	 0.0	 1	    1.00000	    0.00000	 69.0	 1	    1.10000	    0.90000;
	46913	 1	 0.0	 0.0	 0.0	 0.0	 1	    1.00000	    0.00000	 69.0	 1	    1.10000	    0.90000;
	46914	 1	 0.0	 0.0	 0.0	 0.0	 1	    1.00000	    0.00000	 500.0	 1	    1.10000	    0.90000;
	46915	 1	 0.0	 0.0	 0.0	 0.0	 1	    1.00000	    0.00000	 138.0	 1	    1.10000	    0.90000;
	46916	 1	 0.0	 0.0	 0.0	 0.0	 1	    1.00000	    0.00000	 500.0	 1	    1.10000	    0.90000;
	46917	 2	 0.0	 0.0	 0.0	 0.0	 1	    1.00000	    0.00000	 138.0	 1	    1.10000	    0.90000;
	46918	 1	 0.0	 0.0	 0.0	 0.0	 1	    1.00000	    0.00000	 345.0	 1	    1.10000	    0.90000;
	46919	 2	 0.0	 0.0	 0.0	 0.0	 1	    1.00000	    0.00000	 69.0	 1	    1.10000	    0.90000;
	46920	 2	 0.0	 0.0	 0.0	 0.0	 1	    1.00000	    0.00000	 69.0	 1	    1.10000	    0.90000;
	46921	 1	 0.0	 0.0	 0.0	 0.0	 1	    1.00000	    0.00000	 138.0	 1	    1.10000	    0.90000;
	46922	 2	 0.0	 0.0	 0.0	 0.0	 1	    1.00000	    0.00000	 230.0	 1	    1.10000	    0.90000;
	46923	 2	 0.0	 0.0	 0.0	 0.0	 1	    1.00000	    0.00000	 230.0	 1	    1.10000	    0.90000;
	46924	 2	 0.0	 0.0	 0.0	 0.0	 1	    1.00000	    0.00000	 138.0	 1	    1.10000	    0.90000;
	46925	 1	 0.0	 0.0	 0.0	 0.0	 1	    1.00000	    0.00000	 138.0	 1	    1.10000	    0.90000;
	46926	 2	 0.0	 0.0	 0.0	 0.0	 1	    1.00000	    0.00000	 138.0	 1	    1.10000	    0.90000;
	46927	 2	 0.0	 0.0	 0.0	 0.0	 1	    1.00000	    0.00000	 69.0	 1	    1.10000	    0.90000;
	46928	 1	 0.0	 0.0	 0.0	 0.0	 1	    1.00000	    0.00000	 230.0	 1	    1.10000	    0.90000;
	46929	 2	 0.0	 0.0	 0.0	 0.0	 1	    1.00000	    0.00000	 69.0	 1	    1.10000	    0.90000;
	46930	 1	 0.0	 0.0	 0.0	 0.0	 1	    1.00000	    0.00000	 138.0	 1	    1.10000	    0.90000;
	46931	 1	 0.0	 0.0	 0.0	 0.0	 1	    1.00000	    0.00000	 138.0	 1	    1.10000	    0.90000;
	46932	 1	 0.0	 0.0	 0.0	 0.0	 1	    1.00000	    0.00000	 138.0	 1	    1.10000	    0.90000;
	46933	 1	 0.0	 0.0	 0.0	 0.0	 1	    1.00000	    0.00000	 69.0	 1	    1.10000	    0.90000;
	46934	 2	 0.0	 0.0	 0.0	 0.0	 1	    1.00000	    0.00000	 138.0	 1	    1.10000	    0.90000;
	46935	 1	 0.0	 0.0	 0.0	 0.0	 1	    1.00000	    0.00000	 345.0	 1	    1.10000	    0.90000;
	46936	 2	 0.0	 0.0	 0.0	 0.0	 1	    1.00000	    0.00000	 69.0	 1	    1.10000	    0.90000;
	46937	 2	 0.0	 0.0	 0.0	 0.0	 1	    1.00000	    0.00000	 345.0	 1	    1.10000	    0.90000;
	46938	 1	 0.0	 0.0	 0.0	 0.0	 1	    1.00000	    0.00000	 230.0	 1	    1.10000	    0.90000;
	46939	 1	 0.0	 0.0	 0.0	 0.0	 1	    1.00000	    0.00000	 500.0	 1	    1.10000	    0.90000;
	46940	 2	 0.0	 -6.536	 0.0	 0.0	 1	    1.00000	    0.00000	 69.0	 1	    1.10000	    0.90000;
	46941	 2	 0.0	 0.0	 0.0	 0.0	 1	    1.00000	    0.00000	 138.0	 1	    1.10000	    0.90000;
	46942	 2	 0.0	 -9.88	 0.0	 0.0	 1	    1.00000	    0.00000	 69.0	 1	    1.10000	    0.90000;
	46943	 1	 0.0	 0.0	 0.0	 0.0	 1	    1.00000	    0.00000	 69.0	 1	    1.10000	    0.90000;
	46944	 1	 0.0	 0.0	 0.0	 0.0	 1	    1.00000	    0.00000	 69.0	 1	    1.10000	    0.90000;
	46945	 1	 0.0	 0.0	 0.0	 0.0	 1	    1.00000	    0.00000	 345.0	 1	    1.10000	    0.90000;
	46946	 1	 0.0	 0.0	 0.0	 0.0	 1	    1.00000	    0.00000	 345.0	 1	    1.10000	    0.90000;
	46947	 1	 0.0	 0.0	 0.0	 0.0	 1	    1.00000	    0.00000	 500.0	 1	    1.10000	    0.90000;
	46948	 1	 0.0	 0.0	 0.0	 0.0	 1	    1.00000	    0.00000	 500.0	 1	    1.10000	    0.90000;
	46949	 1	 0.0	 0.0	 0.0	 0.0	 1	    1.00000	    0.00000	 230.0	 1	    1.10000	    0.90000;
	46950	 2	 0.0	 0.0	 0.0	 0.0	 1	    1.00000	    0.00000	 345.0	 1	    1.10000	    0.90000;
	46951	 2	 0.0	 0.0	 0.0	 0.0	 1	    1.00000	    0.00000	 230.0	 1	    1.10000	    0.90000;
	46952	 1	 0.0	 0.0	 0.0	 0.0	 1	    1.00000	    0.00000	 230.0	 1	    1.10000	    0.90000;
	46953	 1	 0.0	 0.0	 0.0	 0.0	 1	    1.00000	    0.00000	 500.0	 1	    1.10000	    0.90000;
	46954	 1	 0.0	 0.0	 0.0	 0.0	 1	    1.00000	    0.00000	 500.0	 1	    1.10000	    0.90000;
	46955	 1	 0.0	 0.0	 0.0	 0.0	 1	    1.00000	    0.00000	 230.0	 1	    1.10000	    0.90000;
	46956	 2	 0.0	 0.0	 0.0	 0.0	 1	    1.00000	    0.00000	 500.0	 1	    1.10000	    0.90000;
	46957	 2	 0.0	 0.0	 0.0	 0.0	 1	    1.00000	    0.00000	 345.0	 1	    1.10000	    0.90000;
	46958	 1	 0.0	 0.0	 0.0	 0.0	 1	    1.00000	    0.00000	 345.0	 1	    1.10000	    0.90000;
	46959	 1	 0.0	 0.0	 0.0	 0.0	 1	    1.00000	    0.00000	 230.0	 1	    1.10000	    0.90000;
	46960	 1	 0.0	 0.0	 0.0	 0.0	 1	    1.00000	    0.00000	 500.0	 1	    1.10000	    0.90000;
	46961	 2	 0.0	 0.0	 0.0	 0.0	 1	    1.00000	    0.00000	 230.0	 1	    1.10000	    0.90000;
	46962	 1	 0.0	 0.0	 0.0	 0.0	 1	    1.00000	    0.00000	 230.0	 1	    1.10000	    0.90000;
	46963	 2	 0.0	 0.0	 0.0	 0.0	 1	    1.00000	    0.00000	 69.0	 1	    1.10000	    0.90000;
	46964	 2	 0.0	 0.0	 0.0	 0.0	 1	    1.00000	    0.00000	 138.0	 1	    1.10000	    0.90000;
	46965	 2	 0.0	 0.0	 0.0	 0.0	 1	    1.00000	    0.00000	 345.0	 1	    1.10000	    0.90000;
	46966	 2	 0.0	 0.0	 0.0	 0.0	 1	    1.00000	    0.00000	 69.0	 1	    1.10000	    0.90000;
	46967	 2	 0.0	 0.0	 0.0	 0.0	 1	    1.00000	    0.00000	 138.0	 1	    1.10000	    0.90000;
	46968	 2	 0.0	 0.0	 0.0	 0.0	 1	    1.00000	    0.00000	 230.0	 1	    1.10000	    0.90000;
	46969	 2	 0.0	 0.0	 0.0	 0.0	 1	    1.00000	    0.00000	 138.0	 1	    1.10000	    0.90000;
	46970	 1	 0.0	 0.0	 0.0	 0.0	 1	    1.00000	    0.00000	 138.0	 1	    1.10000	    0.90000;
	46971	 1	 0.0	 0.0	 0.0	 0.0	 1	    1.00000	    0.00000	 69.0	 1	    1.10000	    0.90000;
	46972	 1	 0.0	 0.0	 0.0	 0.0	 1	    1.00000	    0.00000	 230.0	 1	    1.10000	    0.90000;
	46973	 1	 0.0	 0.0	 0.0	 0.0	 1	    1.00000	    0.00000	 69.0	 1	    1.10000	    0.90000;
	46974	 1	 0.0	 0.0	 0.0	 0.0	 1	    1.00000	    0.00000	 69.0	 1	    1.10000	    0.90000;
	46975	 1	 0.0	 0.0	 0.0	 0.0	 1	    1.00000	    0.00000	 69.0	 1	    1.10000	    0.90000;
	46976	 1	 0.0	 0.0	 0.0	 0.0	 1	    1.00000	    0.00000	 230.0	 1	    1.10000	    0.90000;
	46977	 2	 0.0	 0.0	 0.0	 0.0	 1	    1.00000	    0.00000	 138.0	 1	    1.10000	    0.90000;
	46978	 1	 0.0	 0.0	 0.0	 0.0	 1	    1.00000	    0.00000	 230.0	 1	    1.10000	    0.90000;
	46979	 2	 0.0	 0.0	 0.0	 0.0	 1	    1.00000	    0.00000	 138.0	 1	    1.10000	    0.90000;
	46980	 1	 0.0	 0.0	 0.0	 0.0	 1	    1.00000	    0.00000	 138.0	 1	    1.10000	    0.90000;
	46981	 2	 0.0	 0.0	 0.0	 0.0	 1	    1.00000	    0.00000	 138.0	 1	    1.10000	    0.90000;
	46982	 1	 0.0	 0.0	 0.0	 0.0	 1	    1.00000	    0.00000	 138.0	 1	    1.10000	    0.90000;
	46983	 1	 0.0	 0.0	 0.0	 0.0	 1	    1.00000	    0.00000	 138.0	 1	    1.10000	    0.90000;
	46984	 1	 0.0	 0.0	 0.0	 0.0	 1	    1.00000	    0.00000	 230.0	 1	    1.10000	    0.90000;
	46985	 1	 0.0	 0.0	 0.0	 0.0	 1	    1.00000	    0.00000	 500.0	 1	    1.10000	    0.90000;
	46986	 1	 0.0	 0.0	 0.0	 0.0	 1	    1.00000	    0.00000	 138.0	 1	    1.10000	    0.90000;
	46987	 2	 0.0	 0.0	 0.0	 0.0	 1	    1.00000	    0.00000	 138.0	 1	    1.10000	    0.90000;
	46988	 1	 0.0	 0.0	 0.0	 0.0	 1	    1.00000	    0.00000	 345.0	 1	    1.10000	    0.90000;
	46989	 2	 0.0	 0.0	 0.0	 0.0	 1	    1.00000	    0.00000	 69.0	 1	    1.10000	    0.90000;
	46990	 1	 0.0	 0.0	 0.0	 0.0	 1	    1.00000	    0.00000	 230.0	 1	    1.10000	    0.90000;
	46991	 2	 0.0	 0.0	 0.0	 0.0	 1	    1.00000	    0.00000	 69.0	 1	    1.10000	    0.90000;
	46992	 2	 0.0	 0.0	 0.0	 0.0	 1	    1.00000	    0.00000	 69.0	 1	    1.10000	    0.90000;
	46993	 1	 0.0	 0.0	 0.0	 0.0	 1	    1.00000	    0.00000	 69.0	 1	    1.10000	    0.90000;
	46994	 1	 0.0	 0.0	 0.0	 0.0	 1	    1.00000	    0.00000	 69.0	 1	    1.10000	    0.90000;
	46995	 2	 0.0	 0.0	 0.0	 3.17078093532	 1	    1.00000	    0.00000	 69.0	 1	    1.10000	    0.90000;
	46996	 1	 0.0	 0.0	 0.0	 0.0	 1	    1.00000	    0.00000	 69.0	 1	    1.10000	    0.90000;
	46997	 2	 0.0	 0.0	 0.0	 0.0	 1	    1.00000	    0.00000	 69.0	 1	    1.10000	    0.90000;
	46998	 2	 0.0	 -6.992	 0.0	 0.0	 1	    1.00000	    0.00000	 69.0	 1	    1.10000	    0.90000;
	46999	 1	 0.0	 0.0	 0.0	 0.0	 1	    1.00000	    0.00000	 69.0	 1	    1.10000	    0.90000;
	47000	 2	 0.0	 0.0	 0.0	 0.0	 1	    1.00000	    0.00000	 69.0	 1	    1.10000	    0.90000;
	47001	 2	 0.0	 0.0	 0.0	 0.0	 1	    1.00000	    0.00000	 69.0	 1	    1.10000	    0.90000;
	47002	 1	 0.0	 0.0	 0.0	 0.0	 1	    1.00000	    0.00000	 138.0	 1	    1.10000	    0.90000;
	47003	 1	 0.0	 0.0	 0.0	 0.0	 1	    1.00000	    0.00000	 138.0	 1	    1.10000	    0.90000;
	47004	 2	 0.0	 0.0	 0.0	 0.0	 1	    1.00000	    0.00000	 69.0	 1	    1.10000	    0.90000;
	47005	 1	 0.0	 0.0	 0.0	 0.0	 1	    1.00000	    0.00000	 69.0	 1	    1.10000	    0.90000;
	47006	 2	 0.0	 0.0	 0.0	 0.0	 1	    1.00000	    0.00000	 69.0	 1	    1.10000	    0.90000;
	47007	 1	 0.0	 0.0	 0.0	 0.0	 1	    1.00000	    0.00000	 500.0	 1	    1.10000	    0.90000;
	47008	 1	 0.0	 0.0	 0.0	 0.0	 1	    1.00000	    0.00000	 138.0	 1	    1.10000	    0.90000;
	47009	 1	 0.0	 0.0	 0.0	 0.0	 1	    1.00000	    0.00000	 230.0	 1	    1.10000	    0.90000;
	47010	 2	 0.0	 0.0	 0.0	 0.0	 1	    1.00000	    0.00000	 69.0	 1	    1.10000	    0.90000;
	47011	 1	 0.0	 0.0	 0.0	 0.0	 1	    1.00000	    0.00000	 500.0	 1	    1.10000	    0.90000;
	47012	 1	 2.28	 0.608	 0.0	 0.0	 1	    1.00000	    0.00000	 69.0	 1	    1.10000	    0.90000;
	47013	 1	 10.412	 2.356	 0.0	 0.0	 1	    1.00000	    0.00000	 69.0	 1	    1.10000	    0.90000;
	47014	 1	 3.344	 0.836	 0.0	 0.0	 1	    1.00000	    0.00000	 69.0	 1	    1.10000	    0.90000;
	47015	 1	 6.46	 1.672	 0.0	 0.0	 1	    1.00000	    0.00000	 69.0	 1	    1.10000	    0.90000;
	47016	 1	 2.964	 0.684	 0.0	 0.0	 1	    1.00000	    0.00000	 69.0	 1	    1.10000	    0.90000;
	47017	 1	 0.0	 0.0	 0.0	 0.0	 1	    1.00000	    0.00000	 138.0	 1	    1.10000	    0.90000;
	47018	 1	 0.0	 0.0	 0.0	 0.0	 1	    1.00000	    0.00000	 138.0	 1	    1.10000	    0.90000;
	47019	 1	 4.484	 1.292	 0.0	 0.0	 1	    1.00000	    0.00000	 69.0	 1	    1.10000	    0.90000;
	47020	 1	 2.736	 0.684	 0.0	 0.0	 1	    1.00000	    0.00000	 138.0	 1	    1.10000	    0.90000;
	47021	 1	 0.0	 0.0	 0.0	 0.0	 1	    1.00000	    0.00000	 230.0	 1	    1.10000	    0.90000;
	47022	 1	 1.672	 0.532	 0.0	 0.0	 1	    1.00000	    0.00000	 230.0	 1	    1.10000	    0.90000;
	47023	 1	 2.128	 0.684	 0.0	 0.0	 1	    1.00000	    0.00000	 138.0	 1	    1.10000	    0.90000;
	47024	 1	 0.0	 0.0	 0.0	 0.0	 1	    1.00000	    0.00000	 138.0	 1	    1.10000	    0.90000;
	47025	 1	 1.9	 0.608	 0.0	 0.0	 1	    1.00000	    0.00000	 69.0	 1	    1.10000	    0.90000;
	47026	 1	 8.74	 2.128	 0.0	 0.0	 1	    1.00000	    0.00000	 69.0	 1	    1.10000	    0.90000;
	47027	 1	 3.192	 0.912	 0.0	 0.0	 1	    1.00000	    0.00000	 69.0	 1	    1.10000	    0.90000;
	47028	 1	 7.98	 2.204	 0.0	 0.0	 1	    1.00000	    0.00000	 69.0	 1	    1.10000	    0.90000;
	47029	 1	 3.268	 0.988	 0.0	 0.0	 1	    1.00000	    0.00000	 69.0	 1	    1.10000	    0.90000;
	47030	 1	 3.268	 0.988	 0.0	 0.0	 1	    1.00000	    0.00000	 69.0	 1	    1.10000	    0.90000;
	47031	 1	 2.432	 0.684	 0.0	 0.0	 1	    1.00000	    0.00000	 69.0	 1	    1.10000	    0.90000;
	47032	 1	 2.28	 0.76	 0.0	 0.0	 1	    1.00000	    0.00000	 69.0	 1	    1.10000	    0.90000;
	47033	 1	 4.408	 1.596	 0.0	 0.0	 1	    1.00000	    0.00000	 69.0	 1	    1.10000	    0.90000;
	47034	 1	 11.172	 2.888	 0.0	 0.0	 1	    1.00000	    0.00000	 69.0	 1	    1.10000	    0.90000;
	47035	 1	 3.42	 1.064	 0.0	 0.0	 1	    1.00000	    0.00000	 69.0	 1	    1.10000	    0.90000;
	47036	 1	 3.42	 1.064	 0.0	 0.0	 1	    1.00000	    0.00000	 69.0	 1	    1.10000	    0.90000;
	47037	 1	 11.172	 2.964	 0.0	 0.0	 1	    1.00000	    0.00000	 69.0	 1	    1.10000	    0.90000;
	47038	 1	 7.296	 1.748	 0.0	 0.0	 1	    1.00000	    0.00000	 69.0	 1	    1.10000	    0.90000;
	47039	 1	 3.496	 1.064	 0.0	 0.0	 1	    1.00000	    0.00000	 69.0	 1	    1.10000	    0.90000;
	47040	 1	 0.0	 0.0	 0.0	 0.0	 1	    1.00000	    0.00000	 230.0	 1	    1.10000	    0.90000;
	47041	 1	 0.0	 0.0	 0.0	 0.0	 1	    1.00000	    0.00000	 230.0	 1	    1.10000	    0.90000;
	47042	 1	 1.976	 0.532	 0.0	 0.0	 1	    1.00000	    0.00000	 69.0	 1	    1.10000	    0.90000;
...
];

%% generator data
%	bus	Pg	Qg	Qmax	Qmin	Vg	mBase	status	Pmax	Pmin
mpc.gen = [
	46843	 728.0625	 0.0	 309.8	 -309.8	 1.0	 100.0	 1	 801.125	 655.0;
	46843	 661.0625	 68.15	 437.1	 -300.8	 1.0	 100.0	 1	 767.125	 555.0;
	46844	 482.5	 67.95	 435.9	 -300.0	 1.0	 100.0	 1	 765.0	 200.0;
	46844	 482.5	 67.95	 435.9	 -300.0	 1.0	 100.0	 1	 765.0	 200.0;
	46846	 456.0	 54.35	 348.7	 -240.0	 1.0	 100.0	 1	 612.0	 300.0;
	46849	 173.85	 18.25	 117.2	 -80.7	 1.0	 100.0	 1	 205.7	 142.0;
	46849	 173.85	 18.25	 117.2	 -80.7	 1.0	 100.0	 1	 205.7	 142.0;
	46849	 152.85	 19.8	 126.9	 -87.3	 1.0	 100.0	 1	 222.7	 83.0;
	46850	 150.2125	 40.15	 173.8	 -93.5	 1.0	 100.0	 1	 238.425	 62.0;
	46850	 134.7025	 28.55	 123.5	 -66.4	 1.0	 100.0	 1	 169.405	 100.0;
	46850	 134.7025	 28.55	 123.5	 -66.4	 1.0	 100.0	 1	 169.405	 100.0;
	46851	 152.225	 23.9	 153.5	 -105.7	 1.0	 100.0	 1	 269.45	 35.0;
	46851	 124.5325	 15.0	 96.3	 -66.3	 1.0	 100.0	 1	 169.065	 80.0;
	46851	 124.5325	 15.0	 96.3	 -66.3	 1.0	 100.0	 1	 169.065	 80.0;
	46852	 126.5	 25.8	 111.6	 -60.0	 1.0	 100.0	 1	 153.0	 100.0;
	46852	 29.8	 4.2	 27.1	 -18.7	 1.0	 100.0	 1	 47.6	 12.0;
	46853	 119.8	 25.2	 109.1	 -58.7	 1.0	 100.0	 1	 149.6	 90.0;
	46853	 178.375	 36.5	 158.0	 -85.0	 1.0	 100.0	 1	 216.75	 140.0;
	46853	 119.8	 25.2	 109.1	 -58.7	 1.0	 100.0	 1	 149.6	 90.0;
	46853	 119.8	 25.2	 109.1	 -58.7	 1.0	 100.0	 1	 149.6	 90.0;
	46853	 119.8	 25.2	 109.1	 -58.7	 1.0	 100.0	 1	 149.6	 90.0;
	46853	 119.8	 25.2	 109.1	 -58.7	 1.0	 100.0	 1	 149.6	 90.0;
	46853	 119.8	 25.2	 109.1	 -58.7	 1.0	 100.0	 1	 149.6	 90.0;
	46853	 119.8	 25.2	 109.1	 -58.7	 1.0	 100.0	 1	 149.6	 90.0;
	46853	 119.8	 25.2	 109.1	 -58.7	 1.0	 100.0	 1	 149.6	 90.0;
	46853	 178.375	 36.5	 158.0	 -85.0	 1.0	 100.0	 1	 216.75	 140.0;
	46859	 13.1625	 2.275	 11.05	 -6.5	 1.0	 100.0	 1	 16.575	 9.75;
	46859	 13.1625	 2.275	 11.05	 -6.5	 1.0	 100.0	 1	 16.575	 9.75;
	46859	 13.1625	 2.275	 11.05	 -6.5	 1.0	 100.0	 1	 16.575	 9.75;
	46859	 13.1625	 2.275	 11.05	 -6.5	 1.0	 100.0	 1	 16.575	 9.75;
	46860	 85.91	 18.2	 88.5	 -52.1	 1.0	 100.0	 1	 132.77	 39.05;
	46862	 33.8	 0.0	 18.4	 -18.4	 1.0	 100.0	 1	 47.6	 20.0;
	46862	 33.8	 0.0	 18.4	 -18.4	 1.0	 100.0	 1	 47.6	 20.0;
	46863	 35.175	 7.3	 31.6	 -17.0	 1.0	 100.0	 1	 43.35	 27.0;
	46863	 35.175	 7.3	 31.6	 -17.0	 1.0	 100.0	 1	 43.35	 27.0;
	46863	 35.175	 7.3	 31.6	 -17.0	 1.0	 100.0	 1	 43.35	 27.0;
	46863	 35.175	 7.3	 31.6	 -17.0	 1.0	 100.0	 1	 43.35	 27.0;
	46863	 35.175	 7.3	 31.6	 -17.0	 1.0	 100.0	 1	 43.35	 27.0;
	46863	 35.175	 7.3	 31.6	 -17.0	 1.0	 100.0	 1	 43.35	 27.0;
	46863	 60.625	 7.95	 50.9	 -35.0	 1.0	 100.0	 1	 89.25	 32.0;
	46863	 60.625	 7.95	 50.9	 -35.0	 1.0	 100.0	 1	 89.25	 32.0;
	46863	 52.4875	 11.95	 51.7	 -27.8	 1.0	 100.0	 1	 70.975	 34.0;
	46866	 22.085	 3.05	 19.5	 -13.4	 1.0	 100.0	 1	 34.17	 10.0;
	46866	 22.085	 3.05	 19.5	 -13.4	 1.0	 100.0	 1	 34.17	 10.0;
	46871	 25.9375	 2.85	 18.2	 -12.5	 1.0	 100.0	 1	 31.875	 20.0;
	46871	 25.9375	 2.85	 18.2	 -12.5	 1.0	 100.0	 1	 31.875	 20.0;
	46872	 5.09	 0.0	 3.533	 -3.533	 1.0	 100.0	 1	 9.18	 1.0;
	46872	 5.09	 0.0	 3.533	 -3.533	 1.0	 100.0	 1	 9.18	 1.0;
	46872	 5.09	 0.0	 3.533	 -3.533	 1.0	 100.0	 1	 9.18	 1.0;
	46874	 19.4	 2.15	 13.6	 -9.3	 1.0	 100.0	 1	 23.8	 15.0;
	46874	 19.4	 2.15	 13.6	 -9.3	 1.0	 100.0	 1	 23.8	 15.0;
	46876	 6.1125	 0.65	 4.133	 -2.833	 1.0	 100.0	 1	 7.225	 5.0;
	46876	 6.1125	 0.65	 4.133	 -2.833	 1.0	 100.0	 1	 7.225	 5.0;
	46876	 6.1125	 0.65	 4.133	 -2.833	 1.0	 100.0	 1	 7.225	 5.0;
	46881	 12.0	 0.0	 6.6	 -6.6	 1.0	 100.0	 1	 17.0	 7.0;
	46881	 12.0	 0.0	 6.6	 -6.6	 1.0	 100.0	 1	 17.0	 7.0;
	46881	 12.0	 0.0	 6.6	 -6.6	 1.0	 100.0	 1	 17.0	 7.0;
	46881	 12.0	 0.0	 6.6	 -6.6	 1.0	 100.0	 1	 17.0	 7.0;
	46881	 12.0	 0.0	 6.6	 -6.6	 1.0	 100.0	 1	 17.0	 7.0;
	46888	 336.205	 71.7	 348.3	 -204.9	 1.0	 100.0	 1	 522.41	 150.0;
	46895	 87.875	 27.95	 120.9	 -65.0	 1.0	 100.0	 1	 165.75	 10.0;
	46895	 89.15	 28.35	 122.7	 -66.0	 1.0	 100.0	 1	 168.3	 10.0;
	46895	 89.15	 28.35	 122.7	 -66.0	 1.0	 100.0	 1	 168.3	 10.0;
	46895	 89.15	 28.35	 122.7	 -66.0	 1.0	 100.0	 1	 168.3	 10.0;
	46895	 89.15	 28.35	 122.7	 -66.0	 1.0	 100.0	 1	 168.3	 10.0;
	46896	 53.775	 14.75	 63.8	 -34.3	 1.0	 100.0	 1	 87.55	 20.0;
	46897	 128.3175	 34.85	 150.7	 -81.0	 1.0	 100.0	 1	 206.635	 50.0;
	46897	 73.28	 16.25	 70.4	 -37.9	 1.0	 100.0	 1	 96.56	 50.0;
	46899	 129.7	 26.35	 114.0	 -61.3	 1.0	 100.0	 1	 156.4	 103.0;
	46899	 129.7	 26.35	 114.0	 -61.3	 1.0	 100.0	 1	 156.4	 103.0;
	46899	 137.8	 36.7	 158.7	 -85.3	 1.0	 100.0	 1	 217.6	 58.0;
	46900	 123.2025	 25.65	 111.1	 -59.8	 1.0	 100.0	 1	 152.405	 94.0;
	46900	 123.2025	 25.65	 111.1	 -59.8	 1.0	 100.0	 1	 152.405	 94.0;
	46900	 123.2025	 25.65	 111.1	 -59.8	 1.0	 100.0	 1	 152.405	 94.0;
	46900	 87.35	 17.45	 75.6	 -40.7	 1.0	 100.0	 1	 103.7	 71.0;
	46900	 87.35	 17.45	 75.6	 -40.7	 1.0	 100.0	 1	 103.7	 71.0;
	46900	 87.35	 17.45	 75.6	 -40.7	 1.0	 100.0	 1	 103.7	 71.0;
	46901	 189.9475	 51.35	 222.3	 -119.6	 1.0	 100.0	 1	 304.895	 75.0;
	46904	 91.44	 10.0	 64.3	 -44.3	 1.0	 100.0	 1	 112.88	 70.0;
	46904	 91.44	 10.0	 64.3	 -44.3	 1.0	 100.0	 1	 112.88	 70.0;
	46905	 69.8675	 9.75	 62.5	 -43.0	 1.0	 100.0	 1	 109.735	 30.0;
	46905	 81.6525	 24.8	 107.4	 -57.8	 1.0	 100.0	 1	 147.305	 16.0;
	46909	 69.2	 14.9	 64.5	 -34.7	 1.0	 100.0	 1	 88.4	 50.0;
	46909	 69.2	 14.9	 64.5	 -34.7	 1.0	 100.0	 1	 88.4	 50.0;
	46909	 69.2	 14.9	 64.5	 -34.7	 1.0	 100.0	 1	 88.4	 50.0;
	46909	 69.2	 14.9	 64.5	 -34.7	 1.0	 100.0	 1	 88.4	 50.0;
	46911	 119.0	 6.45	 41.3	 -28.4	 1.0	 100.0	 1	 165.0	 73.0;
	46912	 49.1575	 12.0	 52.0	 -28.0	 1.0	 100.0	 1	 71.315	 27.0;
	46917	 27.5	 0.0	 25.6	 -25.6	 1.0	 100.0	 1	 51.0	 4.0;
	46919	 8.5325	 0.0	 6.2	 -6.2	 1.0	 100.0	 1	 16.065	 1.0;
	46919	 8.5325	 0.0	 6.2	 -6.2	 1.0	 100.0	 1	 16.065	 1.0;
	46919	 8.5325	 0.0	 6.2	 -6.2	 1.0	 100.0	 1	 16.065	 1.0;
	46920	 48.625	 12.2	 52.7	 -28.3	 1.0	 100.0	 1	 72.25	 25.0;
	46922	 18.875	 5.0	 21.7	 -11.7	 1.0	 100.0	 1	 29.75	 8.0;
	46922	 56.0675	 10.45	 45.3	 -24.4	 1.0	 100.0	 1	 62.135	 50.0;
	46922	 56.0675	 10.45	 45.3	 -24.4	 1.0	 100.0	 1	 62.135	 50.0;
	46922	 51.81	 11.05	 47.8	 -25.7	 1.0	 100.0	 1	 65.62	 38.0;
	46922	 51.81	 11.05	 47.8	 -25.7	 1.0	 100.0	 1	 65.62	 38.0;
	46922	 23.125	 6.45	 27.9	 -15.0	 1.0	 100.0	 1	 38.25	 8.0;
	46922	 38.85	 11.75	 50.8	 -27.3	 1.0	 100.0	 1	 69.7	 8.0;
	46922	 4.9625	 1.5	 6.5	 -3.5	 1.0	 100.0	 1	 8.925	 1.0;
	46922	 4.9625	 1.5	 6.5	 -3.5	 1.0	 100.0	 1	 8.925	 1.0;
	46922	 4.9625	 1.5	 6.5	 -3.5	 1.0	 100.0	 1	 8.925	 1.0;
	46922	 4.9625	 1.5	 6.5	 -3.5	 1.0	 100.0	 1	 8.925	 1.0;
	46922	 4.9625	 1.5	 6.5	 -3.5	 1.0	 100.0	 1	 8.925	 1.0;
	46922	 9.0	 2.85	 12.4	 -6.7	 1.0	 100.0	 1	 17.0	 1.0;
	46923	 46.081	 9.8	 46.7	 -27.1	 1.0	 100.0	 1	 69.02	 23.142;
	46924	 28.92	 0.0	 0.0	 0.0	 1.0	 100.0	 1	 42.84	 15.0;
	46924	 28.92	 0.0	 0.0	 0.0	 1.0	 100.0	 1	 42.84	 15.0;
	46926	 33.5	 5.75	 24.8	 -13.3	 1.0	 100.0	 1	 34.0	 33.0;
	46926	 33.5	 5.75	 24.8	 -13.3	 1.0	 100.0	 1	 34.0	 33.0;
	46927	 24.1725	 0.0	 7.2	 -7.2	 1.0	 100.0	 1	 30.345	 18.0;
	46927	 27.51	 0.0	 8.4	 -8.4	 1.0	 100.0	 1	 35.02	 20.0;
	46929	 6.0125	 1.15	 6.45	 -4.15	 1.0	 100.0	 1	 10.625	 1.4;
	46934	 24.448	 4.3	 21.3	 -12.7	 1.0	 100.0	 1	 32.47	 16.426;
	46934	 30.49	 5.55	 24.0	 -12.9	 1.0	 100.0	 1	 32.98	 28.0;
	46934	 30.15	 7.9	 28.5	 -12.7	 1.0	 100.0	 1	 32.3	 28.0;
	46936	 2.4475	 0.74	 3.04	 -1.56	 1.0	 100.0	 1	 3.995	 0.9;
	46936	 2.4475	 0.74	 3.04	 -1.56	 1.0	 100.0	 1	 3.995	 0.9;
	46936	 2.4475	 0.74	 3.04	 -1.56	 1.0	 100.0	 1	 3.995	 0.9;
	46936	 2.4475	 0.74	 3.04	 -1.56	 1.0	 100.0	 1	 3.995	 0.9;
	46936	 2.4475	 0.74	 3.04	 -1.56	 1.0	 100.0	 1	 3.995	 0.9;
	46937	 180.6125	 49.9	 216.0	 -116.2	 1.0	 100.0	 1	 296.225	 65.0;
	46940	 19.9375	 2.85	 18.2	 -12.5	 1.0	 100.0	 1	 31.875	 8.0;
	46941	 14.7475	 2.95	 12.8	 -6.9	 1.0	 100.0	 1	 17.595	 11.9;
	46942	 2.011	 0.55	 2.071	 -0.971	 1.0	 100.0	 1	 2.477	 1.545;
	46942	 2.011	 0.55	 2.071	 -0.971	 1.0	 100.0	 1	 2.477	 1.545;
	46942	 2.011	 0.55	 2.071	 -0.971	 1.0	 100.0	 1	 2.477	 1.545;
	46942	 2.011	 0.55	 2.071	 -0.971	 1.0	 100.0	 1	 2.477	 1.545;
	46942	 2.011	 0.55	 2.071	 -0.971	 1.0	 100.0	 1	 2.477	 1.545;
	46942	 2.011	 0.55	 2.071	 -0.971	 1.0	 100.0	 1	 2.477	 1.545;
	46942	 2.011	 0.55	 2.071	 -0.971	 1.0	 100.0	 1	 2.477	 1.545;
	46950	 407.425	 46.9	 300.8	 -207.0	 1.0	 100.0	 1	 527.85	 287.0;
	46950	 403.925	 46.9	 300.8	 -207.0	 1.0	 100.0	 1	 527.85	 280.0;
	46951	 359.6225	 78.75	 340.7	 -183.2	 1.0	 100.0	 1	 467.245	 252.0;
	46956	 169.2	 15.4	 98.8	 -68.0	 1.0	 100.0	 1	 173.4	 165.0;
	46956	 169.2	 15.4	 98.8	 -68.0	 1.0	 100.0	 1	 173.4	 165.0;
	46957	 124.45	 14.65	 94.0	 -64.7	 1.0	 100.0	 1	 164.9	 84.0;
	46957	 37.1	 3.95	 25.2	 -17.3	 1.0	 100.0	 1	 44.2	 30.0;
	46957	 39.225	 4.3	 27.6	 -19.0	 1.0	 100.0	 1	 48.45	 30.0;
	46961	 548.65	 55.7	 357.4	 -246.0	 1.0	 100.0	 1	 627.3	 470.0;
	46961	 235.6	 38.95	 168.6	 -90.7	 1.0	 100.0	 1	 240.0	 231.2;
	46963	 40.5	 0.0	 66.1	 -66.1	 1.0	 100.0	 1	 81.0	 0.0;
	46964	 33.5	 0.0	 64.4	 -64.4	 1.0	 100.0	 1	 67.0	 0.0;
	46965	 185.325	 41.4	 179.1	 -96.3	 1.0	 100.0	 1	 245.65	 125.0;
	46965	 235.075	 51.4	 222.5	 -119.7	 1.0	 100.0	 1	 305.15	 165.0;
	46966	 87.01	 17.35	 75.1	 -40.4	 1.0	 100.0	 1	 103.02	 71.0;
	46967	 89.725	 16.75	 72.5	 -39.0	 1.0	 100.0	 1	 99.45	 80.0;
	46967	 89.725	 16.75	 72.5	 -39.0	 1.0	 100.0	 1	 99.45	 80.0;
	46967	 89.725	 16.75	 72.5	 -39.0	 1.0	 100.0	 1	 99.45	 80.0;
	46968	 71.265	 14.6	 63.1	 -33.9	 1.0	 100.0	 1	 86.53	 56.0;
	46968	 71.265	 14.6	 63.1	 -33.9	 1.0	 100.0	 1	 86.53	 56.0;
	46968	 71.265	 14.6	 63.1	 -33.9	 1.0	 100.0	 1	 86.53	 56.0;
	46968	 71.265	 14.6	 63.1	 -33.9	 1.0	 100.0	 1	 86.53	 56.0;
	46968	 71.265	 14.6	 63.1	 -33.9	 1.0	 100.0	 1	 86.53	 56.0;
	46968	 71.265	 14.6	 63.1	 -33.9	 1.0	 100.0	 1	 86.53	 56.0;
	46969	 48.25	 6.8	 43.6	 -30.0	 1.0	 100.0	 1	 76.5	 20.0;
	46969	 13.125	 3.6	 15.5	 -8.3	 1.0	 100.0	 1	 21.25	 5.0;
	46969	 41.125	 6.45	 41.2	 -28.3	 1.0	 100.0	 1	 72.25	 10.0;
	46977	 44.5	 8.6	 37.2	 -20.0	 1.0	 100.0	 1	 51.0	 38.0;
	46977	 44.5	 8.6	 37.2	 -20.0	 1.0	 100.0	 1	 51.0	 38.0;
	46977	 44.5	 8.6	 37.2	 -20.0	 1.0	 100.0	 1	 51.0	 38.0;
	46979	 24.7	 0.0	 22.4	 -22.4	 1.0	 100.0	 1	 49.0	 0.4;
	46981	 31.46	 0.0	 17.1	 -17.1	 1.0	 100.0	 1	 44.2	 18.72;
	46987	 31.7	 6.3	 27.3	 -14.7	 1.0	 100.0	 1	 37.4	 26.0;
	46989	 3.8095	 0.9615	 3.456	 -1.533	 1.0	 100.0	 1	 3.919	 3.7;
	46989	 3.8095	 0.9615	 3.456	 -1.533	 1.0	 100.0	 1	 3.919	 3.7;
	46989	 3.8095	 0.9615	 3.456	 -1.533	 1.0	 100.0	 1	 3.919	 3.7;
	46991	 17.0	 3.05	 19.4	 -13.3	 1.0	 100.0	 1	 34.0	 0.0;
	46991	 17.0	 3.05	 19.4	 -13.3	 1.0	 100.0	 1	 34.0	 0.0;
	46992	 27.0	 5.0	 20.0	 -10.0	 1.0	 100.0	 1	 34.0	 20.0;
	46995	 10.15	 1.35	 8.7	 -6.0	 1.0	 100.0	 1	 15.3	 5.0;
	46995	 10.15	 1.35	 8.7	 -6.0	 1.0	 100.0	 1	 15.3	 5.0;
	46997	 19.584	 3.45	 17.1	 -10.2	 1.0	 100.0	 1	 26.01	 13.158;
	46998	 41.5	 0.0	 8.9	 -8.9	 1.0	 100.0	 1	 56.0	 27.0;
	47000	 1.5275	 0.545	 1.97	 -0.88	 1.0	 100.0	 1	 2.235	 0.82;
	47000	 1.5275	 0.545	 1.97	 -0.88	 1.0	 100.0	 1	 2.235	 0.82;
	47001	 4.4475	 0.0	 1.767	 -1.767	 1.0	 100.0	 1	 7.395	 1.5;
	47001	 4.4475	 0.0	 1.767	 -1.767	 1.0	 100.0	 1	 7.395	 1.5;
	47001	 4.4475	 0.0	 1.767	 -1.767	 1.0	 100.0	 1	 7.395	 1.5;
	47004	 6.656	 1.8	 7.35	 -3.75	 1.0	 100.0	 1	 9.562	 3.75;
	47004	 6.656	 1.8	 7.35	 -3.75	 1.0	 100.0	 1	 9.562	 3.75;
	47006	 14.35	 0.0	 10.0	 -10.0	 1.0	 100.0	 1	 18.7	 10.0;
	47010	 10.51	 1.6	 10.3	 -7.1	 1.0	 100.0	 1	 18.02	 3.0;
	75440	 492.5	 67.95	 435.9	 -300.0	 1.0	 100.0	 1	 765.0	 220.0;
	75445	 327.15	 42.15	 270.3	 -186.0	 1.0	 100.0	 1	 474.3	 180.0;
	75463	 37.575	 6.05	 31.8	 -19.7	 1.0	 100.0	 1	 50.15	 25.0;
	75463	 86.05	 9.5	 61.0	 -42.0	 1.0	 100.0	 1	 107.1	 65.0;
	75466	 56.7625	 12.4	 53.6	 -28.8	 1.0	 100.0	 1	 73.525	 40.0;
	75466	 56.7625	 12.4	 53.6	 -28.8	 1.0	 100.0	 1	 73.525	 40.0;
	75466	 57.4	 12.6	 54.5	 -29.3	 1.0	 100.0	 1	 74.8	 40.0;
	75466	 57.4	 12.6	 54.5	 -29.3	 1.0	 100.0	 1	 74.8	 40.0;
	75473	 27.9	 0.0	 15.8	 -15.8	 1.0	 100.0	 1	 40.8	 15.0;
	75473	 27.9	 0.0	 15.8	 -15.8	 1.0	 100.0	 1	 40.8	 15.0;
	75476	 22.085	 0.0	 13.2	 -13.2	 1.0	 100.0	 1	 34.17	 10.0;
	75476	 22.085	 0.0	 13.2	 -13.2	 1.0	 100.0	 1	 34.17	 10.0;
	75476	 22.085	 0.0	 13.2	 -13.2	 1.0	 100.0	 1	 34.17	 10.0;
	75476	 22.085	 0.0	 13.2	 -13.2	 1.0	 100.0	 1	 34.17	 10.0;
	75480	 19.4	 5.0	 19.2	 -9.2	 1.0	 100.0	 1	 23.8	 15.0;
	75480	 24.5	 5.0	 23.1	 -13.1	 1.0	 100.0	 1	 34.0	 15.0;
...
];

%% generator cost data
%	2	startup	shutdown	n	c(n-1)	...	c0
mpc.gencost = [
	2	 0.0	 0.0	 3	   0.000000	   0.000000	   0.000000;
	2	 0.0	 0.0	 3	   0.000000	   0.000000	   0.000000;
	2	 0.0	 0.0	 3	   0.001590	  11.230000	   0.000000;
	2	 0.0	 0.0	 3	   0.001590	  10.550000	   0.000000;
	2	 0.0	 0.0	 3	   0.000000	  10.720000	 -378.700000;
	2	 0.0	 0.0	 3	   0.000000	  23.620000	 -832.800000;
	2	 0.0	 0.0	 3	   0.000000	  22.990000	 -832.800000;
	2	 0.0	 0.0	 3	   0.026340	  14.530000	  -3.539000;
	2	 0.0	 0.0	 3	   0.026360	  14.140000	  -2.876000;
	2	 0.0	 0.0	 3	   0.000000	  24.940000	 -177.700000;
	2	 0.0	 0.0	 3	   0.000000	  24.160000	 -177.700000;
	2	 0.0	 0.0	 3	   0.026390	  14.350000	  -2.410000;
	2	 0.0	 0.0	 3	   0.000000	  26.760000	 -152.700000;
	2	 0.0	 0.0	 3	   0.000000	  23.430000	 -152.700000;
	2	 0.0	 0.0	 3	   0.000000	  19.390000	 -543.600000;
	2	 0.0	 0.0	 3	   0.000000	  22.030000	 -49.030000;
	2	 0.0	 0.0	 3	   0.000000	  19.150000	 -489.700000;
	2	 0.0	 0.0	 3	   0.000000	  24.560000	 -880.500000;
	2	 0.0	 0.0	 3	   0.000000	  19.510000	 -489.700000;
	2	 0.0	 0.0	 3	   0.000000	  20.330000	 -489.700000;
	2	 0.0	 0.0	 3	   0.000000	  18.630000	 -489.700000;
	2	 0.0	 0.0	 3	   0.000000	  19.580000	 -489.700000;
	2	 0.0	 0.0	 3	   0.000000	  18.850000	 -489.700000;
	2	 0.0	 0.0	 3	   0.000000	  20.020000	 -489.700000;
	2	 0.0	 0.0	 3	   0.000000	  18.880000	 -489.700000;
	2	 0.0	 0.0	 3	   0.000000	  23.740000	 -880.500000;
	2	 0.0	 0.0	 3	   0.000000	  20.330000	  -1.303000;
	2	 0.0	 0.0	 3	   0.000000	  21.010000	  -1.303000;
	2	 0.0	 0.0	 3	   0.000000	  20.500000	  -1.303000;
	2	 0.0	 0.0	 3	   0.000000	  19.590000	  -1.303000;
	2	 0.0	 0.0	 3	   0.000000	  30.170000	 -110.700000;
	2	 0.0	 0.0	 3	   0.000000	  17.490000	 -75.030000;
	2	 0.0	 0.0	 3	   0.000000	  15.750000	 -75.030000;
	2	 0.0	 0.0	 3	   0.000000	  22.470000	 -69.070000;
	2	 0.0	 0.0	 3	   0.000000	  22.870000	 -69.070000;
	2	 0.0	 0.0	 3	   0.000000	  21.010000	 -69.070000;
	2	 0.0	 0.0	 3	   0.000000	  21.770000	 -69.070000;
	2	 0.0	 0.0	 3	   0.000000	  22.270000	 -69.070000;
	2	 0.0	 0.0	 3	   0.000000	  21.940000	 -69.070000;
	2	 0.0	 0.0	 3	   0.000000	  25.510000	 -36.050000;
	2	 0.0	 0.0	 3	   0.000000	  23.430000	 -36.050000;
	2	 0.0	 0.0	 3	   0.000000	  24.730000	 -27.110000;
	2	 0.0	 0.0	 3	   0.000000	  14.000000	 -31.680000;
	2	 0.0	 0.0	 3	   0.000000	  14.300000	 -31.680000;
	2	 0.0	 0.0	 3	   0.000000	  16.500000	 -43.840000;
	2	 0.0	 0.0	 3	   0.000000	  15.350000	 -43.840000;
	2	 0.0	 0.0	 3	   0.000000	  13.830000	  -1.584000;
	2	 0.0	 0.0	 3	   0.000000	  12.930000	  -1.584000;
	2	 0.0	 0.0	 3	   0.000000	  12.540000	  -1.584000;
	2	 0.0	 0.0	 3	   0.000000	  12.940000	 -24.520000;
	2	 0.0	 0.0	 3	   0.000000	  14.630000	 -24.520000;
	2	 0.0	 0.0	 3	   0.000000	   0.004124	   0.000000;
	2	 0.0	 0.0	 3	   0.000000	   0.004124	   0.000000;
	2	 0.0	 0.0	 3	   0.000000	   0.004124	   0.000000;
	2	 0.0	 0.0	 3	   0.000000	  12.990000	  -9.454000;
	2	 0.0	 0.0	 3	   0.000000	  13.720000	  -9.454000;
	2	 0.0	 0.0	 3	   0.000000	  12.020000	  -9.454000;
	2	 0.0	 0.0	 3	   0.000000	  13.480000	  -9.454000;
	2	 0.0	 0.0	 3	   0.000000	  12.260000	  -9.454000;
	2	 0.0	 0.0	 3	   0.001625	   9.692000	   0.000000;
	2	 0.0	 0.0	 3	   0.009283	  20.980000	   0.000000;
	2	 0.0	 0.0	 3	   0.009284	  24.120000	   0.000000;
	2	 0.0	 0.0	 3	   0.009284	  22.000000	   0.000000;
	2	 0.0	 0.0	 3	   0.009284	  22.830000	   0.000000;
	2	 0.0	 0.0	 3	   0.009284	  20.940000	   0.000000;
	2	 0.0	 0.0	 3	   0.000000	  24.380000	 -27.780000;
	2	 0.0	 0.0	 3	   0.026350	  13.370000	  -2.392000;
	2	 0.0	 0.0	 3	   0.000000	  22.450000	 -52.800000;
	2	 0.0	 0.0	 3	   0.000000	  20.310000	 -571.200000;
	2	 0.0	 0.0	 3	   0.000000	  20.080000	 -571.200000;
	2	 0.0	 0.0	 3	   0.026350	  13.710000	  -2.668000;
	2	 0.0	 0.0	 3	   0.000000	  20.380000	 -517.300000;
	2	 0.0	 0.0	 3	   0.000000	  19.910000	 -517.300000;
	2	 0.0	 0.0	 3	   0.000000	  19.210000	 -517.300000;
	2	 0.0	 0.0	 3	   0.000000	  23.510000	 -74.110000;
	2	 0.0	 0.0	 3	   0.000000	  24.730000	 -74.110000;
	2	 0.0	 0.0	 3	   0.000000	  22.860000	 -74.110000;
	2	 0.0	 0.0	 3	   0.009375	  17.010000	  -1.262000;
	2	 0.0	 0.0	 3	   0.000000	  20.390000	 -62.730000;
	2	 0.0	 0.0	 3	   0.000000	  23.290000	 -62.730000;
	2	 0.0	 0.0	 3	   0.000000	  14.510000	 -27.060000;
	2	 0.0	 0.0	 3	   0.000000	  15.180000	 -34.890000;
	2	 0.0	 0.0	 3	   0.000000	  21.690000	 -36.070000;
	2	 0.0	 0.0	 3	   0.000000	  21.810000	 -36.070000;
	2	 0.0	 0.0	 3	   0.000000	  20.830000	 -36.070000;
	2	 0.0	 0.0	 3	   0.000000	  20.090000	 -36.070000;
	2	 0.0	 0.0	 3	   0.000000	  21.370000	 -107.000000;
	2	 0.0	 0.0	 3	   0.000000	  22.650000	 -18.230000;
	2	 0.0	 0.0	 3	   0.000000	  21.300000	 -26.600000;
	2	 0.0	 0.0	 3	   0.000000	  16.370000	  -1.799000;
	2	 0.0	 0.0	 3	   0.000000	  16.920000	  -1.799000;
	2	 0.0	 0.0	 3	   0.000000	  16.930000	  -1.799000;
	2	 0.0	 0.0	 3	   0.000000	  33.270000	 -69.830000;
	2	 0.0	 0.0	 3	   0.000000	  13.960000	 -14.700000;
	2	 0.0	 0.0	 3	   0.000000	  19.490000	 -23.120000;
	2	 0.0	 0.0	 3	   0.000000	  20.910000	 -23.120000;
	2	 0.0	 0.0	 3	   0.000000	  20.640000	 -20.200000;
	2	 0.0	 0.0	 3	   0.000000	  19.510000	 -20.200000;
	2	 0.0	 0.0	 3	   0.000000	  14.830000	 -18.130000;
	2	 0.0	 0.0	 3	   0.000000	  13.850000	 -28.890000;
	2	 0.0	 0.0	 3	   0.000000	  11.860000	   0.000000;
	2	 0.0	 0.0	 3	   0.000000	  12.350000	   0.000000;
	2	 0.0	 0.0	 3	   0.000000	  12.660000	   0.000000;
	2	 0.0	 0.0	 3	   0.000000	  13.370000	   0.000000;
	2	 0.0	 0.0	 3	   0.000000	  13.360000	   0.000000;
	2	 0.0	 0.0	 3	   0.000000	  14.220000	  -5.699000;
	2	 0.0	 0.0	 3	   0.000000	  33.800000	 -68.730000;
	2	 0.0	 0.0	 3	   0.000000	  16.630000	 -22.810000;
	2	 0.0	 0.0	 3	   0.000000	  16.770000	 -22.810000;
	2	 0.0	 0.0	 3	   0.000000	   0.008333	   0.000000;
	2	 0.0	 0.0	 3	   0.000000	   0.008333	   0.000000;
	2	 0.0	 0.0	 3	   0.000000	  16.660000	 -15.920000;
	2	 0.0	 0.0	 3	   0.000000	  16.610000	 -20.650000;
	2	 0.0	 0.0	 3	   0.000000	  22.180000	  -3.386000;
	2	 0.0	 0.0	 3	   0.000000	  18.620000	 -16.360000;
	2	 0.0	 0.0	 3	   0.000000	   0.001931	   0.000000;
	2	 0.0	 0.0	 3	   0.000000	   0.002222	   0.000000;
	2	 0.0	 0.0	 3	   0.000000	   0.003035	   0.000000;
	2	 0.0	 0.0	 3	   0.000000	   0.003035	   0.000000;
	2	 0.0	 0.0	 3	   0.000000	   0.003035	   0.000000;
	2	 0.0	 0.0	 3	   0.000000	   0.003035	   0.000000;
	2	 0.0	 0.0	 3	   0.000000	   0.003035	   0.000000;
	2	 0.0	 0.0	 3	   0.006303	  26.010000	   0.000000;
	2	 0.0	 0.0	 3	   0.000000	  32.220000	 -31.600000;
	2	 0.0	 0.0	 3	   0.000000	  16.450000	  -5.882000;
	2	 0.0	 0.0	 3	   0.000000	   0.008834	   0.000000;
	2	 0.0	 0.0	 3	   0.000000	   0.008834	   0.000000;
	2	 0.0	 0.0	 3	   0.000000	   0.008834	   0.000000;
	2	 0.0	 0.0	 3	   0.000000	   0.008834	   0.000000;
	2	 0.0	 0.0	 3	   0.000000	   0.008834	   0.000000;
	2	 0.0	 0.0	 3	   0.000000	   0.008834	   0.000000;
	2	 0.0	 0.0	 3	   0.000000	   0.008834	   0.000000;
	2	 0.0	 0.0	 3	   0.000000	  13.040000	 -287.200000;
	2	 0.0	 0.0	 3	   0.000000	  10.950000	 -282.500000;
	2	 0.0	 0.0	 3	   0.000000	  11.470000	 -272.600000;
	2	 0.0	 0.0	 3	   0.000000	  15.230000	 -259.700000;
	2	 0.0	 0.0	 3	   0.000000	  13.580000	 -259.700000;
	2	 0.0	 0.0	 3	   0.000000	  12.800000	 -111.700000;
	2	 0.0	 0.0	 3	   0.000000	  17.810000	 -37.220000;
	2	 0.0	 0.0	 3	   0.000000	  17.780000	 -41.830000;
	2	 0.0	 0.0	 3	   0.000000	  12.010000	 -529.500000;
	2	 0.0	 0.0	 3	   0.000000	  13.580000	 -279.100000;
	2	 0.0	 0.0	 3	   0.000000	   0.000123	   0.000000;
	2	 0.0	 0.0	 3	   0.000000	   0.000149	   0.000000;
	2	 0.0	 0.0	 3	   0.000000	  11.870000	 -170.300000;
	2	 0.0	 0.0	 3	   0.000000	  11.970000	 -227.100000;
	2	 0.0	 0.0	 3	   0.000000	  21.820000	 -56.440000;
	2	 0.0	 0.0	 3	   0.000000	  22.150000	 -59.220000;
	2	 0.0	 0.0	 3	   0.000000	  21.200000	 -59.220000;
	2	 0.0	 0.0	 3	   0.000000	  22.350000	 -59.220000;
	2	 0.0	 0.0	 3	   0.000000	  19.720000	 -38.020000;
	2	 0.0	 0.0	 3	   0.000000	  21.560000	 -38.020000;
	2	 0.0	 0.0	 3	   0.000000	  20.540000	 -38.020000;
	2	 0.0	 0.0	 3	   0.000000	  22.100000	 -38.020000;
	2	 0.0	 0.0	 3	   0.000000	  22.690000	 -38.020000;
	2	 0.0	 0.0	 3	   0.000000	  19.690000	 -38.020000;
	2	 0.0	 0.0	 3	   0.000000	  14.090000	 -39.090000;
	2	 0.0	 0.0	 3	   0.000000	  34.770000	 -18.940000;
	2	 0.0	 0.0	 3	   0.000000	  19.810000	 -12.080000;
	2	 0.0	 0.0	 3	   0.000000	  17.520000	 -53.160000;
	2	 0.0	 0.0	 3	   0.000000	  18.110000	 -53.160000;
	2	 0.0	 0.0	 3	   0.000000	  17.550000	 -53.160000;
	2	 0.0	 0.0	 3	   0.000000	  13.410000	  -2.122000;
	2	 0.0	 0.0	 3	   0.000000	  16.370000	 -65.000000;
	2	 0.0	 0.0	 3	   0.000000	  16.200000	 -35.880000;
	2	 0.0	 0.0	 3	   0.000000	   0.023870	   0.000000;
	2	 0.0	 0.0	 3	   0.000000	   0.023870	   0.000000;
	2	 0.0	 0.0	 3	   0.000000	   0.023870	   0.000000;
	2	 0.0	 0.0	 3	   0.000000	  17.160000	   0.000000;
	2	 0.0	 0.0	 3	   0.000000	  18.290000	   0.000000;
	2	 0.0	 0.0	 3	   0.000000	  18.800000	 -19.870000;
	2	 0.0	 0.0	 3	   0.000000	  16.300000	  -2.803000;
	2	 0.0	 0.0	 3	   0.000000	  17.210000	  -2.803000;
	2	 0.0	 0.0	 3	   0.000000	  16.800000	 -10.500000;
	2	 0.0	 0.0	 3	   0.000000	  16.170000	 -113.100000;
	2	 0.0	 0.0	 3	   0.000000	   0.006192	   0.000000;
	2	 0.0	 0.0	 3	   0.000000	   0.006192	   0.000000;
	2	 0.0	 0.0	 3	   0.000000	  31.020000	  -1.882000;
	2	 0.0	 0.0	 3	   0.000000	  31.990000	  -1.882000;
	2	 0.0	 0.0	 3	   0.000000	  28.820000	  -1.882000;
	2	 0.0	 0.0	 3	   0.000000	  15.000000	  -3.148000;
	2	 0.0	 0.0	 3	   0.000000	  14.040000	  -3.148000;
	2	 0.0	 0.0	 3	   0.000000	  13.560000	 -15.490000;
	2	 0.0	 0.0	 3	   0.000000	  18.120000	  -2.893000;
	2	 0.0	 0.0	 3	   0.001586	  10.120000	   0.000000;
	2	 0.0	 0.0	 3	   0.000000	  12.340000	 -212.500000;
	2	 0.0	 0.0	 3	   0.000000	  23.300000	 -79.380000;
	2	 0.0	 0.0	 3	   0.000000	  24.750000	 -72.420000;
	2	 0.0	 0.0	 3	   0.000000	  20.570000	 -24.300000;
	2	 0.0	 0.0	 3	   0.000000	  21.690000	 -24.300000;
	2	 0.0	 0.0	 3	   0.000000	  20.820000	 -24.860000;
	2	 0.0	 0.0	 3	   0.000000	  21.760000	 -24.860000;
	2	 0.0	 0.0	 3	   0.000000	  16.750000	 -50.990000;
	2	 0.0	 0.0	 3	   0.000000	  14.540000	 -50.990000;
	2	 0.0	 0.0	 3	   0.000000	  16.200000	 -31.680000;
	2	 0.0	 0.0	 3	   0.000000	  14.400000	 -31.680000;
	2	 0.0	 0.0	 3	   0.000000	  15.000000	 -31.680000;
	2	 0.0	 0.0	 3	   0.000000	  14.190000	 -31.680000;
	2	 0.0	 0.0	 3	   0.000000	  15.310000	 -24.520000;
	2	 0.0	 0.0	 3	   0.000000	  13.830000	 -39.430000;
...
];

%% branch data
%	fbus	tbus	r	x	b	rateA	rateB	rateC	ratio	angle	status	angmin	angmax
mpc.branch = [
	46843	 47329	 0.000335887	 0.00464389	 0.204565	 1258.0	 1258.0	 1258.0	 0.0	 0.0	 1	 -12.3935104262	 12.3935104262;
	46843	 47452	 0.000374118	 0.00318437	 0.118705	 863.0	 863.0	 863.0	 0.0	 0.0	 1	 -12.3935104262	 12.3935104262;
	46843	 47454	 0.000224613	 0.00210892	 0.0859751	 947.0	 947.0	 947.0	 0.0	 0.0	 1	 -12.3935104262	 12.3935104262;
	46843	 47471	 0.00367076	 0.0304301	 1.22342	 863.0	 863.0	 863.0	 0.0	 0.0	 1	 -12.3935104262	 12.3935104262;
	46843	 47694	 0.000580282	 0.00510198	 0.205714	 907.0	 907.0	 907.0	 0.0	 0.0	 1	 -12.3935104262	 12.3935104262;
	46844	 47322	 4.01e-05	 0.000716694	 0.0508648	 2226.0	 2226.0	 2226.0	 0.0	 0.0	 1	 -12.3935104262	 12.3935104262;
	46844	 47572	 0.000647049	 0.00533101	 0.212413	 863.0	 863.0	 863.0	 0.0	 0.0	 1	 -12.3935104262	 12.3935104262;
	46845	 47011	 0.00232981	 0.0302514	 2.30876	 1813.0	 1813.0	 1813.0	 0.0	 0.0	 1	 -12.3935104262	 12.3935104262;
	46845	 47286	 0.000143182	 0.0025632	 0.102995	 1446.0	 1446.0	 1446.0	 0.0	 0.0	 1	 -12.3935104262	 12.3935104262;
	46845	 47684	 0.00194442	 0.0165779	 0.619501	 863.0	 863.0	 863.0	 0.0	 0.0	 1	 -12.3935104262	 12.3935104262;
	46846	 47174	 0.00130984	 0.0222025	 0.885455	 1392.0	 1392.0	 1392.0	 0.0	 0.0	 1	 -12.3935104262	 12.3935104262;
	46846	 47399	 0.000131134	 0.00150267	 0.0589543	 1067.0	 1067.0	 1067.0	 0.0	 0.0	 1	 -12.3935104262	 12.3935104262;
	46847	 47066	 0.00102045	 0.00492368	 0.00878453	 292.0	 292.0	 292.0	 0.0	 0.0	 1	 -12.3935104262	 12.3935104262;
	46848	 47011	 0.00199141	 0.016434	 0.65638	 863.0	 863.0	 863.0	 0.0	 0.0	 1	 -12.3935104262	 12.3935104262;
	46848	 47428	 0.000122957	 0.0017006	 0.147007	 2385.0	 2385.0	 2385.0	 0.0	 0.0	 1	 -12.3935104262	 12.3935104262;
	46849	 47236	 0.000849792	 0.00772295	 0.291355	 907.0	 907.0	 907.0	 0.0	 0.0	 1	 -12.3935104262	 12.3935104262;
	46849	 47577	 0.000634934	 0.00523116	 0.208433	 863.0	 863.0	 863.0	 0.0	 0.0	 1	 -12.3935104262	 12.3935104262;
	46850	 47399	 0.000530536	 0.00514936	 0.196327	 947.0	 947.0	 947.0	 0.0	 0.0	 1	 -12.3935104262	 12.3935104262;
	46850	 49032	 0.000697953	 0.00759483	 0.295312	 1028.0	 1028.0	 1028.0	 0.0	 0.0	 1	 -12.3935104262	 12.3935104262;
	46851	 47194	 0.00234087	 0.0199739	 0.747268	 863.0	 863.0	 863.0	 0.0	 0.0	 1	 -12.3935104262	 12.3935104262;
	46851	 47577	 0.000873919	 0.00848471	 0.323632	 947.0	 947.0	 947.0	 0.0	 0.0	 1	 -12.3935104262	 12.3935104262;
	46851	 47761	 0.00108579	 0.0367092	 3.76339	 4708.0	 4708.0	 4708.0	 0.0	 0.0	 1	 -12.3935104262	 12.3935104262;
	46852	 46882	 0.000230162	 0.0002671	 0.00382317	 244.0	 244.0	 244.0	 0.0	 0.0	 1	 -12.3935104262	 12.3935104262;
	46852	 47323	 0.0010055	 0.0045852	 0.0346398	 398.0	 398.0	 398.0	 0.0	 0.0	 1	 -12.3935104262	 12.3935104262;
	46853	 47097	 0.000805994	 0.00848367	 0.353096	 1028.0	 1028.0	 1028.0	 0.0	 0.0	 1	 -12.3935104262	 12.3935104262;
	46853	 47629	 0.00078904	 0.00928971	 0.345568	 1300.0	 1300.0	 1300.0	 0.0	 0.0	 1	 -12.3935104262	 12.3935104262;
	46853	 47630	 2.18e-05	 0.00028309	 0.0114688	 1177.0	 1177.0	 1177.0	 0.0	 0.0	 1	 -12.3935104262	 12.3935104262;
	46853	 50134	 0.000770469	 0.0246607	 2.71319	 4708.0	 4708.0	 4708.0	 0.0	 0.0	 1	 -12.3935104262	 12.3935104262;
	46854	 47269	 0.0196237	 0.171236	 0.00293947	 131.0	 131.0	 131.0	 0.0	 0.0	 1	 -12.3935104262	 12.3935104262;
	46854	 47347	 0.0854995	 0.282215	 0.00457319	 71.0	 71.0	 71.0	 0.0	 0.0	 1	 -12.3935104262	 12.3935104262;
	46854	 47387	 0.0688384	 0.301688	 0.00648875	 92.0	 92.0	 92.0	 0.0	 0.0	 1	 -12.3935104262	 12.3935104262;
	46854	 47389	 0.0579265	 0.270205	 0.00418369	 88.0	 88.0	 88.0	 0.0	 0.0	 1	 -12.3935104262	 12.3935104262;
	46855	 47632	 0.0268167	 0.152002	 0.0377283	 193.0	 193.0	 193.0	 0.0	 0.0	 1	 -12.3935104262	 12.3935104262;
	46855	 75806	 0.012659	 0.0599207	 0.014411	 175.0	 175.0	 175.0	 0.0	 0.0	 1	 -12.3935104262	 12.3935104262;
	46856	 46881	 4.73e-05	 0.000413319	 0.0146157	 863.0	 863.0	 863.0	 0.0	 0.0	 1	 -12.3935104262	 12.3935104262;
	46856	 47329	 0.00146864	 0.0128403	 0.454714	 863.0	 863.0	 863.0	 0.0	 0.0	 1	 -12.3935104262	 12.3935104262;
	46857	 47299	 0.0143055	 0.0396913	 0.065028	 196.0	 196.0	 196.0	 0.0	 0.0	 1	 -12.3935104262	 12.3935104262;
	46857	 75781	 0.0592699	 0.161662	 0.28159	 196.0	 196.0	 196.0	 0.0	 0.0	 1	 -12.3935104262	 12.3935104262;
	46858	 47066	 0.00638378	 0.028135	 0.060358	 292.0	 292.0	 292.0	 0.0	 0.0	 1	 -12.3935104262	 12.3935104262;
	46858	 47080	 0.00753822	 0.0240306	 0.0368124	 213.0	 213.0	 213.0	 0.0	 0.0	 1	 -12.3935104262	 12.3935104262;
	46858	 47656	 0.000330818	 0.0034285	 0.00658246	 473.0	 473.0	 473.0	 0.0	 0.0	 1	 -12.3935104262	 12.3935104262;
	46859	 47527	 6.83e-06	 5.96e-05	 0.0021093	 863.0	 863.0	 863.0	 0.0	 0.0	 1	 -12.3935104262	 12.3935104262;
	46859	 47577	 0.000936582	 0.0081837	 0.28956	 863.0	 863.0	 863.0	 0.0	 0.0	 1	 -12.3935104262	 12.3935104262;
	46860	 47460	 0.000132296	 0.00108978	 0.0434105	 863.0	 863.0	 863.0	 0.0	 0.0	 1	 -12.3935104262	 12.3935104262;
	46860	 47519	 0.000176033	 0.00211608	 0.0837148	 1113.0	 1113.0	 1113.0	 0.0	 0.0	 1	 -12.3935104262	 12.3935104262;
	46860	 47525	 0.000337137	 0.00294482	 0.104142	 863.0	 863.0	 863.0	 0.0	 0.0	 1	 -12.3935104262	 12.3935104262;
	46861	 47339	 0.0982585	 0.249932	 0.00395307	 59.0	 59.0	 59.0	 0.0	 0.0	 1	 -12.3935104262	 12.3935104262;
	46861	 47560	 0.00643354	 0.0602362	 0.00143917	 154.0	 154.0	 154.0	 0.0	 0.0	 1	 -12.3935104262	 12.3935104262;
	46861	 47561	 0.039186	 0.144898	 0.00268303	 80.0	 80.0	 80.0	 0.0	 0.0	 1	 -12.3935104262	 12.3935104262;
	46861	 75875	 0.0186342	 0.120031	 0.00196664	 110.0	 110.0	 110.0	 0.0	 0.0	 1	 -12.3935104262	 12.3935104262;
	46862	 47079	 0.0107431	 0.0292497	 0.00644425	 118.0	 118.0	 118.0	 0.0	 0.0	 1	 -12.3935104262	 12.3935104262;
	46862	 49975	 0.0398737	 0.155297	 0.0415416	 159.0	 159.0	 159.0	 0.0	 0.0	 1	 -12.3935104262	 12.3935104262;
	46862	 75664	 0.0220103	 0.0581777	 0.0136197	 118.0	 118.0	 118.0	 0.0	 0.0	 1	 -12.3935104262	 12.3935104262;
	46863	 47322	 0.000803564	 0.00684124	 0.25511	 863.0	 863.0	 863.0	 0.0	 0.0	 1	 -12.3935104262	 12.3935104262;
	46863	 47525	 0.000216784	 0.00228074	 0.0948605	 1028.0	 1028.0	 1028.0	 0.0	 0.0	 1	 -12.3935104262	 12.3935104262;
	46864	 47120	 0.000190335	 0.00321586	 0.127636	 1392.0	 1392.0	 1392.0	 0.0	 0.0	 1	 -12.3935104262	 12.3935104262;
	46864	 47122	 0.000130806	 0.0016864	 0.0637522	 1147.0	 1147.0	 1147.0	 0.0	 0.0	 1	 -12.3935104262	 12.3935104262;
	46865	 47272	 0.040755	 0.183785	 0.049	 175.0	 175.0	 175.0	 0.0	 0.0	 1	 -12.3935104262	 12.3935104262;
	46865	 946865	 0.001271	 0.030149	 0.017883	 837.0	 837.0	 837.0	 0.0	 0.0	 1	 -12.3935104262	 12.3935104262;
	46866	 47027	 0.0754397	 0.193946	 0.00300193	 59.0	 59.0	 59.0	 0.0	 0.0	 1	 -12.3935104262	 12.3935104262;
	46866	 47030	 0.0649058	 0.1842	 0.00289453	 64.0	 64.0	 64.0	 0.0	 0.0	 1	 -12.3935104262	 12.3935104262;
	46866	 47031	 0.0456125	 0.116004	 0.00183446	 59.0	 59.0	 59.0	 0.0	 0.0	 1	 -12.3935104262	 12.3935104262;
	46866	 47293	 0.0436947	 0.174877	 0.00369257	 88.0	 88.0	 88.0	 0.0	 0.0	 1	 -12.3935104262	 12.3935104262;
	46866	 76477	 0.318197	 1.07781	 0.0119044	 64.0	 64.0	 64.0	 0.0	 0.0	 1	 -12.3935104262	 12.3935104262;
	46867	 75828	 0.000350097	 0.00288356	 0.00594298	 417.0	 417.0	 417.0	 0.0	 0.0	 1	 -12.3935104262	 12.3935104262;
	46867	 75830	 0.000721295	 0.00759035	 0.0158609	 491.0	 491.0	 491.0	 0.0	 0.0	 1	 -12.3935104262	 12.3935104262;
	46868	 47237	 0.000361516	 0.00337111	 0.120563	 907.0	 907.0	 907.0	 0.0	 0.0	 1	 -12.3935104262	 12.3935104262;
	46869	 47108	 0.0017412	 0.00497724	 0.00766669	 196.0	 196.0	 196.0	 0.0	 0.0	 1	 -12.3935104262	 12.3935104262;
	46869	 47445	 0.0570763	 0.167211	 0.251421	 196.0	 196.0	 196.0	 0.0	 0.0	 1	 -12.3935104262	 12.3935104262;
	46869	 75759	 0.00413593	 0.0176766	 0.0595166	 424.0	 424.0	 424.0	 0.0	 0.0	 1	 -12.3935104262	 12.3935104262;
	46870	 47378	 0.00112228	 0.00575464	 0.0459686	 439.0	 439.0	 439.0	 0.0	 0.0	 1	 -12.3935104262	 12.3935104262;
	46871	 47235	 0.0312763	 0.0726013	 0.0013824	 59.0	 59.0	 59.0	 0.0	 0.0	 1	 -12.3935104262	 12.3935104262;
	46871	 47240	 0.0680525	 0.139277	 0.00342762	 59.0	 59.0	 59.0	 0.0	 0.0	 1	 -12.3935104262	 12.3935104262;
	46871	 47242	 0.0490744	 0.124809	 0.00197372	 59.0	 59.0	 59.0	 0.0	 0.0	 1	 -12.3935104262	 12.3935104262;
	46871	 47243	 0.0789865	 0.215814	 0.00366615	 64.0	 64.0	 64.0	 0.0	 0.0	 1	 -12.3935104262	 12.3935104262;
	46871	 47253	 0.0829802	 0.213337	 0.00330215	 59.0	 59.0	 59.0	 0.0	 0.0	 1	 -12.3935104262	 12.3935104262;
	46872	 47163	 0.0356887	 0.0828441	 0.00157745	 59.0	 59.0	 59.0	 0.0	 0.0	 1	 -12.3935104262	 12.3935104262;
	46872	 47611	 0.0170063	 0.0432496	 0.000683912	 59.0	 59.0	 59.0	 0.0	 0.0	 1	 -12.3935104262	 12.3935104262;
	46872	 75882	 0.0294377	 0.0720562	 0.00123203	 59.0	 59.0	 59.0	 0.0	 0.0	 1	 -12.3935104262	 12.3935104262;
	46873	 47134	 0.00335319	 0.00419619	 0.0515621	 244.0	 244.0	 244.0	 0.0	 0.0	 1	 -12.3935104262	 12.3935104262;
	46873	 47229	 0.0044824	 0.0200417	 0.157832	 398.0	 398.0	 398.0	 0.0	 0.0	 1	 -12.3935104262	 12.3935104262;
	46873	 47456	 0.00527552	 0.0198481	 0.154121	 355.0	 355.0	 355.0	 0.0	 0.0	 1	 -12.3935104262	 12.3935104262;
	46874	 47249	 0.0121999	 0.0298619	 0.000510576	 59.0	 59.0	 59.0	 0.0	 0.0	 1	 -12.3935104262	 12.3935104262;
	46874	 47250	 0.0221619	 0.0502704	 0.00100287	 59.0	 59.0	 59.0	 0.0	 0.0	 1	 -12.3935104262	 12.3935104262;
	46874	 47251	 0.0312128	 0.0724539	 0.0013796	 59.0	 59.0	 59.0	 0.0	 0.0	 1	 -12.3935104262	 12.3935104262;
	46874	 47252	 0.0197717	 0.0534615	 0.000746495	 59.0	 59.0	 59.0	 0.0	 0.0	 1	 -12.3935104262	 12.3935104262;
	46875	 47127	 0.0556927	 0.151772	 0.0334755	 118.0	 118.0	 118.0	 0.0	 0.0	 1	 -12.3935104262	 12.3935104262;
	46875	 47330	 0.00959754	 0.0349177	 0.0106904	 159.0	 159.0	 159.0	 0.0	 0.0	 1	 -12.3935104262	 12.3935104262;
	46876	 47280	 0.158682	 0.388603	 0.00664808	 59.0	 59.0	 59.0	 0.0	 0.0	 1	 -12.3935104262	 12.3935104262;
	46876	 47282	 0.129538	 0.328252	 0.00650464	 64.0	 64.0	 64.0	 0.0	 0.0	 1	 -12.3935104262	 12.3935104262;
	46876	 47430	 0.0949334	 0.250935	 0.00367168	 59.0	 59.0	 59.0	 0.0	 0.0	 1	 -12.3935104262	 12.3935104262;
	46876	 47431	 0.0666366	 0.154694	 0.00294575	 59.0	 59.0	 59.0	 0.0	 0.0	 1	 -12.3935104262	 12.3935104262;
	46876	 47432	 0.0890441	 0.217989	 0.00372781	 59.0	 59.0	 59.0	 0.0	 0.0	 1	 -12.3935104262	 12.3935104262;
	46877	 47023	 0.00355893	 0.0144822	 0.0035284	 159.0	 159.0	 159.0	 0.0	 0.0	 1	 -12.3935104262	 12.3935104262;
	46877	 47024	 0.00370802	 0.0129227	 0.00299641	 142.0	 142.0	 142.0	 0.0	 0.0	 1	 -12.3935104262	 12.3935104262;
	46878	 47496	 0.00268059	 0.00326876	 0.0423182	 244.0	 244.0	 244.0	 0.0	 0.0	 1	 -12.3935104262	 12.3935104262;
	46878	 47546	 0.00159151	 0.00241825	 0.0343208	 283.0	 283.0	 283.0	 0.0	 0.0	 1	 -12.3935104262	 12.3935104262;
	46878	 47547	 0.0013049	 0.00718431	 0.0606364	 462.0	 462.0	 462.0	 0.0	 0.0	 1	 -12.3935104262	 12.3935104262;
	46878	 75833	 0.00194642	 0.00856412	 0.0695741	 398.0	 398.0	 398.0	 0.0	 0.0	 1	 -12.3935104262	 12.3935104262;
	46879	 47080	 0.0166259	 0.0475561	 0.0733112	 196.0	 196.0	 196.0	 0.0	 0.0	 1	 -12.3935104262	 12.3935104262;
	46879	 47374	 0.00219576	 0.0180873	 0.0372838	 417.0	 417.0	 417.0	 0.0	 0.0	 1	 -12.3935104262	 12.3935104262;
	46879	 47649	 0.00920768	 0.0243391	 0.0439681	 196.0	 196.0	 196.0	 0.0	 0.0	 1	 -12.3935104262	 12.3935104262;
	46880	 47264	 0.00782912	 0.026863	 0.0496716	 237.0	 237.0	 237.0	 0.0	 0.0	 1	 -12.3935104262	 12.3935104262;
	46880	 47297	 0.0266936	 0.075725	 0.119065	 196.0	 196.0	 196.0	 0.0	 0.0	 1	 -12.3935104262	 12.3935104262;
	46880	 75698	 0.00102601	 0.00324012	 0.00505489	 213.0	 213.0	 213.0	 0.0	 0.0	 1	 -12.3935104262	 12.3935104262;
	46880	 75700	 0.00322897	 0.00895481	 0.0146628	 196.0	 196.0	 196.0	 0.0	 0.0	 1	 -12.3935104262	 12.3935104262;
	46881	 47230	 0.000624062	 0.00514155	 0.20486	 863.0	 863.0	 863.0	 0.0	 0.0	 1	 -12.3935104262	 12.3935104262;
	46883	 47195	 0.0267472	 0.0644702	 0.0182069	 118.0	 118.0	 118.0	 0.0	 0.0	 1	 -12.3935104262	 12.3935104262;
	46883	 47199	 0.0211906	 0.0560105	 0.0131122	 118.0	 118.0	 118.0	 0.0	 0.0	 1	 -12.3935104262	 12.3935104262;
	46884	 46890	 2.23e-05	 0.00019451	 0.00687822	 863.0	 863.0	 863.0	 0.0	 0.0	 1	 -12.3935104262	 12.3935104262;
	46884	 46891	 2.99e-05	 0.000324994	 0.0203609	 1590.0	 1590.0	 1590.0	 0.0	 0.0	 1	 -12.3935104262	 12.3935104262;
	46884	 48559	 0.000968053	 0.00845892	 0.29931	 863.0	 863.0	 863.0	 0.0	 0.0	 1	 -12.3935104262	 12.3935104262;
	46885	 47934	 0.000540667	 0.00795137	 0.309213	 1258.0	 1258.0	 1258.0	 0.0	 0.0	 1	 -12.3935104262	 12.3935104262;
	46885	 48476	 0.0025778	 0.0424938	 3.0832	 2056.0	 2056.0	 2056.0	 0.0	 0.0	 1	 -12.3935104262	 12.3935104262;
	46886	 47901	 0.000208095	 0.0018176	 0.0642755	 863.0	 863.0	 863.0	 0.0	 0.0	 1	 -12.3935104262	 12.3935104262;
	46886	 48265	 0.00189799	 0.0161808	 0.604587	 863.0	 863.0	 863.0	 0.0	 0.0	 1	 -12.3935104262	 12.3935104262;
	46887	 48003	 0.00166498	 0.0145686	 0.0265596	 417.0	 417.0	 417.0	 0.0	 0.0	 1	 -12.3935104262	 12.3935104262;
	46888	 47843	 0.00455492	 0.0143852	 0.0224438	 550.0	 550.0	 550.0	 0.0	 0.0	 1	 -12.3935104262	 12.3935104262;
	46888	 47867	 0.00107473	 0.00631163	 0.0112112	 321.0	 344.45	 344.45	 0.0	 0.0	 1	 -12.3935104262	 12.3935104262;
	46888	 47873	 0.000918136	 0.00873692	 0.0155227	 550.0	 550.0	 550.0	 0.0	 0.0	 1	 -12.3935104262	 12.3935104262;
	46889	 48022	 0.000603032	 0.00429826	 0.0711306	 877.0	 877.0	 877.0	 0.0	 0.0	 1	 -12.3935104262	 12.3935104262;
	46891	 48552	 0.000130987	 0.00234138	 0.166186	 2226.0	 2226.0	 2226.0	 0.0	 0.0	 1	 -12.3935104262	 12.3935104262;
	46892	 47700	 0.00139422	 0.0073733	 0.114192	 710.0	 710.0	 710.0	 0.0	 0.0	 1	 -12.3935104262	 12.3935104262;
	46892	 48012	 0.0151652	 0.018515	 0.239842	 275.0	 275.0	 300.0	 0.0	 0.0	 1	 -12.3935104262	 12.3935104262;
	46893	 76191	 0.00065258	 0.00333365	 0.0268319	 439.0	 439.0	 439.0	 0.0	 0.0	 1	 -12.3935104262	 12.3935104262;
	46894	 48450	 0.00291904	 0.0201095	 0.035504	 366.0	 366.0	 366.0	 0.0	 0.0	 1	 -12.3935104262	 12.3935104262;
	46894	 76125	 0.00222174	 0.0178508	 0.0387214	 417.0	 417.0	 417.0	 0.0	 0.0	 1	 -12.3935104262	 12.3935104262;
	46895	 75544	 4.31e-05	 0.00051538	 0.0010178	 528.0	 528.0	 528.0	 0.0	 0.0	 1	 -12.3935104262	 12.3935104262;
	46895	 76010	 0.000499964	 0.00781572	 0.0162682	 645.0	 645.0	 700.0	 0.0	 0.0	 1	 -12.3935104262	 12.3935104262;
	46895	 76050	 0.000350719	 0.00535215	 0.0117014	 640.0	 640.0	 640.0	 0.0	 0.0	 1	 -12.3935104262	 12.3935104262;
	46896	 46902	 0.00156705	 0.0103179	 0.0199642	 466.0	 527.9	 527.9	 0.0	 0.0	 1	 -12.3935104262	 12.3935104262;
	46896	 47843	 0.00240667	 0.00825588	 0.0152613	 255.42	 255.42	 255.42	 0.0	 0.0	 1	 -12.3935104262	 12.3935104262;
	46897	 48012	 0.000701425	 0.00836855	 0.0762179	 768.0	 768.0	 768.0	 0.0	 0.0	 1	 -12.3935104262	 12.3935104262;
	46897	 48493	 0.00866054	 0.0380214	 0.312413	 398.0	 398.0	 398.0	 0.0	 0.0	 1	 -12.3935104262	 12.3935104262;
	46898	 47721	 0.000171868	 0.00252665	 0.0982024	 1258.0	 1258.0	 1258.0	 0.0	 0.0	 1	 -12.3935104262	 12.3935104262;
	46898	 47934	 0.00126506	 0.010775	 0.402058	 863.0	 863.0	 863.0	 0.0	 0.0	 1	 -12.3935104262	 12.3935104262;
	46898	 48044	 0.000573719	 0.00488372	 0.182076	 863.0	 863.0	 863.0	 0.0	 0.0	 1	 -12.3935104262	 12.3935104262;
	46899	 47790	 0.00130044	 0.00867269	 0.0163458	 366.0	 366.0	 397.0	 0.0	 0.0	 1	 -12.3935104262	 12.3935104262;
	46899	 75943	 0.00763272	 0.021619	 0.0339279	 196.0	 196.0	 196.0	 0.0	 0.0	 1	 -12.3935104262	 12.3935104262;
	46900	 48465	 0.000117313	 0.00210006	 0.0843839	 1446.0	 1446.0	 1446.0	 0.0	 0.0	 1	 -12.3935104262	 12.3935104262;
	46900	 48675	 0.000321836	 0.00648857	 0.435115	 2354.0	 2354.0	 2354.0	 0.0	 0.0	 1	 -12.3935104262	 12.3935104262;
	46902	 46922	 0.00180426	 0.0123059	 0.0221587	 466.0	 530.95	 530.95	 0.0	 0.0	 1	 -12.3935104262	 12.3935104262;
	46902	 47874	 0.00038268	 0.00487861	 0.0166051	 872.0	 872.0	 872.0	 0.0	 0.0	 1	 -12.3935104262	 12.3935104262;
	46903	 48044	 0.000252992	 0.00294061	 0.124583	 1113.0	 1113.0	 1113.0	 0.0	 0.0	 1	 -12.3935104262	 12.3935104262;
	46903	 48045	 2.21e-05	 0.000222016	 0.0163245	 1590.0	 1590.0	 1590.0	 0.0	 0.0	 1	 -12.3935104262	 12.3935104262;
	46904	 47988	 0.00162518	 0.0149531	 0.0284545	 435.0	 435.0	 435.0	 0.0	 0.0	 1	 -12.3935104262	 12.3935104262;
	46904	 76003	 0.00281525	 0.0257623	 0.0496014	 435.0	 435.0	 435.0	 0.0	 0.0	 1	 -12.3935104262	 12.3935104262;
	46904	 76307	 0.00338138	 0.0144508	 0.0486514	 495.0	 495.0	 495.0	 0.0	 0.0	 1	 -12.3935104262	 12.3935104262;
	46905	 46911	 8.9e-05	 0.000893	 0.000297	 444.0	 444.0	 444.0	 0.0	 0.0	 1	 -12.3935104262	 12.3935104262;
	46905	 46934	 0.0006	 0.002498	 0.000779	 238.0	 238.0	 238.0	 0.0	 0.0	 1	 -12.3935104262	 12.3935104262;
	46905	 76027	 0.02691	 0.092344	 0.022133	 238.0	 238.0	 238.0	 0.0	 0.0	 1	 -12.3935104262	 12.3935104262;
	46905	 76117	 0.027327	 0.08803	 0.024004	 238.0	 238.0	 238.0	 0.0	 0.0	 1	 -12.3935104262	 12.3935104262;
...